<?xml version="1.0" encoding="UTF-8"?>

<!-- generated on 2025-05-30 11:32:02 by Eclipse SUMO netconvert Version 1.22.0
<netconvertConfiguration xmlns:xsi="http://www.w3.org/2001/XMLSchema-instance" xsi:noNamespaceSchemaLocation="http://sumo.dlr.de/xsd/netconvertConfiguration.xsd">

    <input>
        <type-files value="${SUMO_HOME}/data/typemap/osmNetconvert.typ.xml"/>
        <osm-files value="osm_bbox.osm.xml.gz"/>
    </input>

    <output>
        <output-file value="osm.net.xml.gz"/>
        <output.street-names value="true"/>
        <output.original-names value="true"/>
    </output>

    <projection>
        <proj.utm value="true"/>
    </projection>

    <processing>
        <geometry.remove value="true"/>
        <roundabouts.guess value="true"/>
    </processing>

    <tls_building>
        <tls.discard-simple value="true"/>
        <tls.join value="true"/>
        <tls.guess-signals value="true"/>
        <tls.default-type value="actuated"/>
    </tls_building>

    <ramp_guessing>
        <ramps.guess value="true"/>
    </ramp_guessing>

    <junctions>
        <junctions.join value="true"/>
        <junctions.corner-detail value="5"/>
    </junctions>

</netconvertConfiguration>
-->

<net version="1.20" junctionCornerDetail="5" limitTurnSpeed="5.50" xmlns:xsi="http://www.w3.org/2001/XMLSchema-instance" xsi:noNamespaceSchemaLocation="http://sumo.dlr.de/xsd/net_file.xsd">

    <location netOffset="-352037.65,-2762840.43" convBoundary="0.00,0.00,1101.28,1598.14" origBoundary="121.534097,24.973830,121.544932,24.988190" projParameter="+proj=utm +zone=51 +ellps=WGS84 +datum=WGS84 +units=m +no_defs"/>

    <type id="highway.living_street" priority="2" numLanes="1" speed="2.78" disallow="tram rail_urban rail rail_electric rail_fast ship container cable_car subway aircraft wheelchair scooter drone" oneway="0"/>
    <type id="highway.primary" priority="12" numLanes="2" speed="27.78" disallow="tram rail_urban rail rail_electric rail_fast ship container cable_car subway aircraft wheelchair scooter drone" oneway="0"/>
    <type id="highway.residential" priority="3" numLanes="1" speed="13.89" disallow="tram rail_urban rail rail_electric rail_fast ship container cable_car subway aircraft wheelchair scooter drone" oneway="0"/>
    <type id="highway.secondary" priority="11" numLanes="1" speed="27.78" disallow="tram rail_urban rail rail_electric rail_fast ship container cable_car subway aircraft wheelchair scooter drone" oneway="0"/>
    <type id="highway.service" priority="1" numLanes="1" speed="5.56" allow="pedestrian delivery bicycle" oneway="0"/>
    <type id="highway.tertiary" priority="10" numLanes="1" speed="22.22" disallow="tram rail_urban rail rail_electric rail_fast ship container cable_car subway aircraft wheelchair scooter drone" oneway="0"/>
    <type id="highway.unclassified" priority="4" numLanes="1" speed="13.89" disallow="tram rail_urban rail rail_electric rail_fast ship container cable_car subway aircraft wheelchair scooter drone" oneway="0"/>

    <edge id=":10229719063_0" function="internal">
        <lane id=":10229719063_0_0" index="0" disallow="tram rail_urban rail rail_electric rail_fast ship container cable_car subway aircraft wheelchair scooter drone" speed="3.65" length="4.67" shape="1097.91,1054.46 1099.13,1053.69 1100.02,1053.65 1100.59,1054.34 1100.83,1055.76"/>
    </edge>
    <edge id=":1060552111_0" function="internal">
        <lane id=":1060552111_0_0" index="0" allow="pedestrian delivery bicycle" speed="5.56" length="6.01" shape="759.35,19.02 760.26,20.21 760.09,21.45 759.67,22.87 759.85,24.64"/>
    </edge>
    <edge id=":1060552111_1" function="internal">
        <lane id=":1060552111_1_0" index="0" allow="pedestrian delivery bicycle" speed="3.65" length="4.67" shape="759.35,19.02 759.87,20.36 759.74,21.25 758.96,21.67 757.51,21.64"/>
    </edge>
    <edge id=":1060552114_0" function="internal">
        <lane id=":1060552114_0_0" index="0" allow="pedestrian delivery bicycle" speed="5.56" length="6.25" shape="847.76,53.62 847.71,47.37"/>
    </edge>
    <edge id=":1060552114_1" function="internal">
        <lane id=":1060552114_1_0" index="0" allow="pedestrian delivery bicycle" speed="5.56" length="7.86" shape="847.76,53.62 848.14,52.20 849.32,51.20 851.30,50.63 854.08,50.49"/>
    </edge>
    <edge id=":1060552114_2" function="internal">
        <lane id=":1060552114_2_0" index="0" allow="pedestrian delivery bicycle" speed="3.65" length="4.67" shape="847.76,53.62 848.55,52.41 849.34,52.00 850.15,52.39 850.96,53.57"/>
    </edge>
    <edge id=":1060552114_3" function="internal">
        <lane id=":1060552114_3_0" index="0" allow="pedestrian delivery bicycle" speed="5.10" length="5.05" shape="850.91,47.36 851.11,48.70 851.70,49.67 852.69,50.26 854.08,50.49"/>
    </edge>
    <edge id=":1060552114_4" function="internal">
        <lane id=":1060552114_4_0" index="0" allow="pedestrian delivery bicycle" speed="5.56" length="6.22" shape="850.91,47.36 850.96,53.57"/>
    </edge>
    <edge id=":1060552114_5" function="internal">
        <lane id=":1060552114_5_0" index="0" allow="pedestrian delivery bicycle" speed="3.65" length="4.67" shape="850.91,47.36 850.11,48.56 849.31,48.96 848.51,48.57 847.71,47.37"/>
    </edge>
    <edge id=":1060552114_6" function="internal">
        <lane id=":1060552114_6_0" index="0" allow="pedestrian delivery bicycle" speed="5.15" length="5.10" shape="844.57,50.61 845.94,50.35 846.93,49.72 847.51,48.73 847.71,47.37"/>
    </edge>
    <edge id=":1060552114_7" function="internal">
        <lane id=":1060552114_7_0" index="0" allow="pedestrian delivery bicycle" speed="5.56" length="9.51" shape="844.57,50.61 854.08,50.49"/>
    </edge>
    <edge id=":1060552114_8" function="internal">
        <lane id=":1060552114_8_0" index="0" allow="pedestrian delivery bicycle" speed="5.56" length="7.86" shape="844.57,50.61 847.35,50.68 849.34,51.20 850.55,52.16 850.96,53.57"/>
    </edge>
    <edge id=":1060552115_0" function="internal">
        <lane id=":1060552115_0_0" index="0" allow="pedestrian delivery bicycle" speed="5.00" length="5.05" shape="813.67,48.93 813.88,50.30 814.48,51.26 815.48,51.81 816.86,51.94"/>
    </edge>
    <edge id=":1060552115_1" function="internal">
        <lane id=":1060552115_1_0" index="0" allow="pedestrian delivery bicycle" speed="5.56" length="6.42" shape="813.67,48.93 813.65,55.34"/>
    </edge>
    <edge id=":1060552115_2" function="internal">
        <lane id=":1060552115_2_0" index="0" allow="pedestrian delivery bicycle" speed="3.65" length="4.67" shape="813.67,48.93 812.88,50.13 812.09,50.54 811.28,50.15 810.47,48.96"/>
    </edge>
    <edge id=":1060552115_3" function="internal">
        <lane id=":1060552115_3_0" index="0" allow="pedestrian delivery bicycle" speed="5.06" length="5.09" shape="807.38,52.16 808.74,51.96 809.71,51.36 810.29,50.36 810.47,48.96"/>
    </edge>
    <edge id=":1060552115_4" function="internal">
        <lane id=":1060552115_4_0" index="0" allow="pedestrian delivery bicycle" speed="5.56" length="9.49" shape="807.38,52.16 816.86,51.94"/>
    </edge>
    <edge id=":1060552115_5" function="internal">
        <lane id=":1060552115_5_0" index="0" allow="pedestrian delivery bicycle" speed="5.56" length="7.80" shape="807.38,52.16 810.14,52.36 812.11,52.96 813.28,53.95 813.65,55.34"/>
    </edge>
    <edge id=":1060552115_6" function="internal">
        <lane id=":1060552115_6_0" index="0" allow="pedestrian delivery bicycle" speed="5.56" length="6.33" shape="810.45,55.29 810.47,48.96"/>
    </edge>
    <edge id=":1060552115_7" function="internal">
        <lane id=":1060552115_7_0" index="0" allow="pedestrian delivery bicycle" speed="5.56" length="7.90" shape="810.45,55.29 810.87,53.94 812.08,52.93 814.07,52.26 816.86,51.94"/>
    </edge>
    <edge id=":1060552115_8" function="internal">
        <lane id=":1060552115_8_0" index="0" allow="pedestrian delivery bicycle" speed="3.65" length="4.67" shape="810.45,55.29 811.27,54.10 812.08,53.72 812.87,54.13 813.65,55.34"/>
    </edge>
    <edge id=":1060552118_0" function="internal">
        <lane id=":1060552118_0_0" index="0" allow="pedestrian delivery bicycle" speed="3.90" length="2.67" shape="750.91,16.89 750.28,16.51 749.69,16.43 749.13,16.65 748.61,17.17"/>
    </edge>
    <edge id=":1060552118_1" function="internal">
        <lane id=":1060552118_1_0" index="0" allow="pedestrian delivery bicycle" speed="5.56" length="8.02" shape="746.05,15.25 747.61,13.69 749.28,13.03 751.06,13.28 752.95,14.43"/>
    </edge>
    <edge id=":1060552448_0" function="internal">
        <lane id=":1060552448_0_0" index="0" allow="pedestrian delivery bicycle" speed="4.84" length="5.28" shape="644.24,121.20 643.80,119.78 643.02,118.94 641.90,118.69 640.44,119.04"/>
    </edge>
    <edge id=":1060552448_1" function="internal">
        <lane id=":1060552448_1_0" index="0" disallow="tram rail_urban rail rail_electric rail_fast ship container cable_car subway aircraft wheelchair scooter drone" speed="22.22" length="9.72" shape="644.24,121.20 643.78,118.36 643.42,116.41 642.93,114.50 642.09,111.75"/>
    </edge>
    <edge id=":1060552448_2" function="internal">
        <lane id=":1060552448_2_0" index="0" allow="pedestrian delivery bicycle" speed="6.86" length="1.91" shape="644.24,121.20 644.20,119.29"/>
    </edge>
    <edge id=":1060552448_14" function="internal">
        <lane id=":1060552448_14_0" index="0" allow="pedestrian delivery bicycle" speed="6.86" length="9.14" shape="644.20,119.29 644.17,118.04 645.09,115.74 647.02,114.29 649.96,113.71"/>
    </edge>
    <edge id=":1060552448_3" function="internal">
        <lane id=":1060552448_3_0" index="0" allow="pedestrian delivery bicycle" speed="5.05" length="5.45" shape="650.11,116.90 648.70,117.20 647.79,117.93 647.35,119.09 647.40,120.70"/>
    </edge>
    <edge id=":1060552448_4" function="internal">
        <lane id=":1060552448_4_0" index="0" allow="pedestrian delivery bicycle" speed="5.56" length="9.98" shape="650.11,116.90 647.16,117.08 645.15,117.37 643.20,117.97 640.44,119.04"/>
    </edge>
    <edge id=":1060552448_5" function="internal">
        <lane id=":1060552448_5_0" index="0" allow="pedestrian delivery bicycle" speed="7.65" length="10.36" shape="650.11,116.90 647.24,116.69 644.95,115.76 643.23,114.11 642.09,111.75"/>
    </edge>
    <edge id=":1060552448_6" function="internal">
        <lane id=":1060552448_6_0" index="0" allow="pedestrian delivery bicycle" speed="3.65" length="4.67" shape="650.11,116.90 648.87,116.16 648.43,115.38 648.80,114.56 649.96,113.71"/>
    </edge>
    <edge id=":1060552448_7" function="internal">
        <lane id=":1060552448_7_0" index="0" allow="pedestrian delivery bicycle" speed="6.03" length="6.11" shape="645.14,110.79 645.81,112.13 646.83,113.07 648.21,113.59 649.96,113.71"/>
    </edge>
    <edge id=":1060552448_8" function="internal">
        <lane id=":1060552448_8_0" index="0" disallow="tram rail_urban rail rail_electric rail_fast ship container cable_car subway aircraft wheelchair scooter drone" speed="22.22" length="10.18" shape="645.14,110.79 646.01,113.66 646.53,115.68 646.92,117.74 647.40,120.70"/>
    </edge>
    <edge id=":1060552448_9" function="internal">
        <lane id=":1060552448_9_0" index="0" allow="pedestrian delivery bicycle" speed="7.19" length="2.17" shape="645.14,110.79 645.44,112.94"/>
    </edge>
    <edge id=":1060552448_15" function="internal">
        <lane id=":1060552448_15_0" index="0" allow="pedestrian delivery bicycle" speed="7.19" length="8.48" shape="645.44,112.94 645.52,113.44 644.86,115.70 643.17,117.56 640.44,119.04"/>
    </edge>
    <edge id=":1060552448_10" function="internal">
        <lane id=":1060552448_10_0" index="0" allow="pedestrian delivery bicycle" speed="5.48" length="5.76" shape="639.27,116.06 640.84,115.24 641.83,114.25 642.25,113.08 642.09,111.75"/>
    </edge>
    <edge id=":1060552448_11" function="internal">
        <lane id=":1060552448_11_0" index="0" allow="pedestrian delivery bicycle" speed="5.56" length="11.03" shape="639.27,116.06 642.20,114.95 644.48,114.28 646.83,113.91 649.96,113.71"/>
    </edge>
    <edge id=":1060552448_12" function="internal">
        <lane id=":1060552448_12_0" index="0" allow="pedestrian delivery bicycle" speed="6.72" length="11.30" shape="639.27,116.06 642.38,115.32 644.77,115.85 646.45,117.64 647.40,120.70"/>
    </edge>
    <edge id=":1060552448_13" function="internal">
        <lane id=":1060552448_13_0" index="0" allow="pedestrian delivery bicycle" speed="3.65" length="4.67" shape="639.27,116.06 640.68,116.37 641.34,116.96 641.26,117.86 640.44,119.04"/>
    </edge>
    <edge id=":11809022397_0" function="internal">
        <lane id=":11809022397_0_0" index="0" allow="bicycle" speed="3.65" length="4.67" shape="310.11,1563.05 308.68,1562.88 307.96,1562.35 307.96,1561.46 308.66,1560.20"/>
    </edge>
    <edge id=":11809022399_0" function="internal">
        <lane id=":11809022399_0_0" index="0" allow="bicycle" speed="3.65" length="4.67" shape="373.50,1495.02 373.84,1493.62 374.45,1492.97 375.34,1493.07 376.50,1493.92"/>
    </edge>
    <edge id=":12112243707_0" function="internal">
        <lane id=":12112243707_0_0" index="0" allow="pedestrian delivery bicycle" speed="5.56" length="7.79" shape="1030.23,369.19 1029.53,367.94 1029.67,366.42 1030.65,364.61 1032.47,362.52"/>
    </edge>
    <edge id=":12112243707_1" function="internal">
        <lane id=":12112243707_1_0" index="0" allow="pedestrian delivery bicycle" speed="3.65" length="4.67" shape="1030.23,369.19 1029.94,367.78 1030.21,366.93 1031.06,366.64 1032.48,366.91"/>
    </edge>
    <edge id=":12112243707_2" function="internal">
        <lane id=":12112243707_2_0" index="0" allow="pedestrian delivery bicycle" speed="5.56" length="9.40" shape="1025.79,369.14 1032.47,362.52"/>
    </edge>
    <edge id=":12112243707_3" function="internal">
        <lane id=":12112243707_3_0" index="0" allow="pedestrian delivery bicycle" speed="5.56" length="7.78" shape="1025.79,369.14 1027.88,367.35 1029.69,366.37 1031.22,366.23 1032.48,366.91"/>
    </edge>
    <edge id=":12112243708_0" function="internal">
        <lane id=":12112243708_0_0" index="0" allow="pedestrian delivery bicycle" speed="3.65" length="4.67" shape="1070.25,418.55 1070.41,419.98 1070.06,420.81 1069.19,421.02 1067.80,420.61"/>
    </edge>
    <edge id=":12112243714_0" function="internal">
        <lane id=":12112243714_0_0" index="0" allow="pedestrian delivery bicycle" speed="3.65" length="4.67" shape="1078.20,429.66 1078.82,430.97 1078.75,431.86 1077.99,432.34 1076.55,432.41"/>
    </edge>
    <edge id=":12112243717_0" function="internal">
        <lane id=":12112243717_0_0" index="0" allow="pedestrian delivery bicycle" speed="4.71" length="4.59" shape="1063.64,415.67 1062.60,414.68 1061.60,414.24 1060.66,414.36 1059.75,415.01"/>
    </edge>
    <edge id=":12112243717_1" function="internal">
        <lane id=":12112243717_1_0" index="0" allow="pedestrian delivery bicycle" speed="5.56" length="9.20" shape="1063.64,415.67 1061.87,413.58 1060.71,412.11 1059.71,410.53 1058.42,408.13"/>
    </edge>
    <edge id=":12112243717_2" function="internal">
        <lane id=":12112243717_2_0" index="0" allow="pedestrian delivery bicycle" speed="3.65" length="4.67" shape="1063.64,415.67 1063.48,414.23 1063.83,413.41 1064.70,413.20 1066.08,413.61"/>
    </edge>
    <edge id=":12112243717_3" function="internal">
        <lane id=":12112243717_3_0" index="0" allow="pedestrian delivery bicycle" speed="5.56" length="8.49" shape="1061.26,406.66 1062.45,408.87 1063.38,410.33 1064.46,411.68 1066.08,413.61"/>
    </edge>
    <edge id=":12112243717_4" function="internal">
        <lane id=":12112243717_4_0" index="0" allow="pedestrian delivery bicycle" speed="5.56" length="9.12" shape="1061.26,406.66 1062.02,408.82 1062.02,410.93 1061.26,412.99 1059.75,415.01"/>
    </edge>
    <edge id=":12112243717_5" function="internal">
        <lane id=":12112243717_5_0" index="0" allow="pedestrian delivery bicycle" speed="3.65" length="4.67" shape="1061.26,406.66 1061.11,408.09 1060.58,408.82 1059.69,408.83 1058.42,408.13"/>
    </edge>
    <edge id=":12112243717_6" function="internal">
        <lane id=":12112243717_6_0" index="0" allow="pedestrian delivery bicycle" speed="5.56" length="5.57" shape="1057.09,413.17 1058.13,411.84 1058.70,410.56 1058.80,409.33 1058.42,408.13"/>
    </edge>
    <edge id=":12112243717_7" function="internal">
        <lane id=":12112243717_7_0" index="0" allow="pedestrian delivery bicycle" speed="5.56" length="10.55" shape="1057.09,413.17 1059.36,411.39 1061.62,410.87 1063.86,411.61 1066.08,413.61"/>
    </edge>
    <edge id=":12112243717_8" function="internal">
        <lane id=":12112243717_8_0" index="0" allow="pedestrian delivery bicycle" speed="3.66" length="4.73" shape="1057.09,413.17 1058.45,412.63 1059.35,412.76 1059.78,413.56 1059.75,415.01"/>
    </edge>
    <edge id=":12112549816_0" function="internal">
        <lane id=":12112549816_0_0" index="0" allow="pedestrian delivery bicycle" speed="5.06" length="5.03" shape="944.74,578.89 943.38,578.75 942.30,579.09 941.50,579.90 940.97,581.18"/>
    </edge>
    <edge id=":12112549816_1" function="internal">
        <lane id=":12112549816_1_0" index="0" disallow="tram rail_urban rail rail_electric rail_fast ship container cable_car subway aircraft wheelchair scooter drone" speed="22.22" length="9.40" shape="944.74,578.89 935.62,576.62"/>
    </edge>
    <edge id=":12112549816_2" function="internal">
        <lane id=":12112549816_2_0" index="0" disallow="tram rail_urban rail rail_electric rail_fast ship container cable_car subway aircraft wheelchair scooter drone" speed="22.22" length="9.40" shape="936.39,573.52 945.52,575.78"/>
    </edge>
    <edge id=":12112549816_3" function="internal">
        <lane id=":12112549816_3_0" index="0" allow="pedestrian delivery bicycle" speed="6.86" length="3.27" shape="936.39,573.52 938.98,574.57 939.32,574.90"/>
    </edge>
    <edge id=":12112549816_7" function="internal">
        <lane id=":12112549816_7_0" index="0" allow="pedestrian delivery bicycle" speed="6.86" length="6.93" shape="939.32,574.90 940.61,576.20 941.27,578.40 940.97,581.18"/>
    </edge>
    <edge id=":12112549816_4" function="internal">
        <lane id=":12112549816_4_0" index="0" allow="pedestrian delivery bicycle" speed="5.03" length="5.01" shape="937.87,580.39 938.02,579.02 937.69,577.94 936.89,577.14 935.62,576.62"/>
    </edge>
    <edge id=":12112549816_5" function="internal">
        <lane id=":12112549816_5_0" index="0" allow="pedestrian delivery bicycle" speed="6.88" length="10.16" shape="937.87,580.39 938.93,577.81 940.56,576.18 942.76,575.50 945.52,575.78"/>
    </edge>
    <edge id=":12112549816_6" function="internal">
        <lane id=":12112549816_6_0" index="0" allow="pedestrian delivery bicycle" speed="3.65" length="4.67" shape="937.87,580.39 938.94,579.42 939.82,579.24 940.49,579.82 940.97,581.18"/>
    </edge>
    <edge id=":12112850809_0" function="internal">
        <lane id=":12112850809_0_0" index="0" allow="pedestrian delivery bicycle" speed="3.65" length="4.67" shape="1021.57,466.90 1020.16,467.20 1019.30,466.93 1019.01,466.09 1019.27,464.67"/>
    </edge>
    <edge id=":12208658493_0" function="internal">
        <lane id=":12208658493_0_0" index="0" allow="pedestrian delivery bicycle" speed="3.65" length="4.67" shape="708.64,1367.94 709.67,1368.95 709.91,1369.81 709.36,1370.52 708.03,1371.08"/>
    </edge>
    <edge id=":1223127278_0" function="internal">
        <lane id=":1223127278_0_0" index="0" disallow="tram rail_urban rail rail_electric rail_fast ship container cable_car subway aircraft wheelchair scooter drone" speed="13.89" length="5.74" shape="275.38,713.30 274.22,712.05 273.42,711.20 272.57,710.40 271.29,709.28"/>
    </edge>
    <edge id=":1223127278_1" function="internal">
        <lane id=":1223127278_1_0" index="0" allow="pedestrian delivery bicycle" speed="5.92" length="1.95" shape="275.38,713.30 274.53,711.79 274.55,711.58"/>
    </edge>
    <edge id=":1223127278_4" function="internal">
        <lane id=":1223127278_4_0" index="0" allow="pedestrian delivery bicycle" speed="5.92" length="6.36" shape="274.55,711.58 274.72,710.20 275.96,708.52 278.25,706.76"/>
    </edge>
    <edge id=":1223127278_2" function="internal">
        <lane id=":1223127278_2_0" index="0" allow="pedestrian delivery bicycle" speed="5.75" length="5.27" shape="273.36,706.85 274.43,707.49 275.61,707.69 276.88,707.45 278.25,706.76"/>
    </edge>
    <edge id=":1223127278_3" function="internal">
        <lane id=":1223127278_3_0" index="0" disallow="tram rail_urban rail rail_electric rail_fast ship container cable_car subway aircraft wheelchair scooter drone" speed="13.89" length="6.10" shape="273.36,706.85 274.73,708.03 275.63,708.88 276.48,709.78 277.71,711.11"/>
    </edge>
    <edge id=":1223127286_0" function="internal">
        <lane id=":1223127286_0_0" index="0" disallow="tram rail_urban rail rail_electric rail_fast ship container cable_car subway aircraft wheelchair scooter drone" speed="22.22" length="9.14" shape="31.28,430.48 27.85,438.95"/>
    </edge>
    <edge id=":1223127286_1" function="internal">
        <lane id=":1223127286_1_0" index="0" allow="pedestrian delivery bicycle" speed="6.87" length="3.11" shape="31.28,430.48 29.83,432.84 29.55,433.03"/>
    </edge>
    <edge id=":1223127286_7" function="internal">
        <lane id=":1223127286_7_0" index="0" allow="pedestrian delivery bicycle" speed="6.87" length="7.02" shape="29.55,433.03 27.96,434.17 25.69,434.48 23.02,433.76"/>
    </edge>
    <edge id=":1223127286_2" function="internal">
        <lane id=":1223127286_2_0" index="0" allow="pedestrian delivery bicycle" speed="5.05" length="4.99" shape="24.28,430.81 25.59,431.17 26.71,431.02 27.63,430.36 28.35,429.20"/>
    </edge>
    <edge id=":1223127286_3" function="internal">
        <lane id=":1223127286_3_0" index="0" allow="pedestrian delivery bicycle" speed="6.94" length="10.03" shape="24.28,430.81 26.64,432.24 28.02,434.07 28.42,436.31 27.85,438.95"/>
    </edge>
    <edge id=":1223127286_4" function="internal">
        <lane id=":1223127286_4_0" index="0" allow="pedestrian delivery bicycle" speed="3.65" length="4.67" shape="24.28,430.81 25.06,432.02 25.12,432.91 24.43,433.49 23.02,433.76"/>
    </edge>
    <edge id=":1223127286_5" function="internal">
        <lane id=":1223127286_5_0" index="0" allow="pedestrian delivery bicycle" speed="5.14" length="5.04" shape="24.85,437.83 25.13,436.51 24.92,435.39 24.22,434.48 23.02,433.76"/>
    </edge>
    <edge id=":1223127286_6" function="internal">
        <lane id=":1223127286_6_0" index="0" disallow="tram rail_urban rail rail_electric rail_fast ship container cable_car subway aircraft wheelchair scooter drone" speed="22.22" length="9.31" shape="24.85,437.83 28.35,429.20"/>
    </edge>
    <edge id=":1223127296_0" function="internal">
        <lane id=":1223127296_0_0" index="0" disallow="tram rail_urban rail rail_electric rail_fast ship container cable_car subway aircraft wheelchair scooter drone" speed="6.60" length="8.20" shape="130.06,190.58 128.42,188.98 126.66,188.16 124.80,188.13 122.83,188.89"/>
    </edge>
    <edge id=":1223127296_1" function="internal">
        <lane id=":1223127296_1_0" index="0" disallow="tram rail_urban rail rail_electric rail_fast ship container cable_car subway aircraft wheelchair scooter drone" speed="13.89" length="8.51" shape="130.06,190.58 124.53,184.11"/>
    </edge>
    <edge id=":1223127296_2" function="internal">
        <lane id=":1223127296_2_0" index="0" disallow="tram rail_urban rail rail_electric rail_fast ship container cable_car subway aircraft wheelchair scooter drone" speed="3.65" length="1.44" shape="130.06,190.58 129.94,189.14"/>
    </edge>
    <edge id=":1223127296_6" function="internal">
        <lane id=":1223127296_6_0" index="0" disallow="tram rail_urban rail rail_electric rail_fast ship container cable_car subway aircraft wheelchair scooter drone" speed="3.65" length="3.23" shape="129.94,189.14 130.31,188.33 131.19,188.14 132.56,188.58"/>
    </edge>
    <edge id=":1223127296_3" function="internal">
        <lane id=":1223127296_3_0" index="0" disallow="tram rail_urban rail rail_electric rail_fast ship container cable_car subway aircraft wheelchair scooter drone" speed="13.89" length="8.66" shape="126.93,182.00 132.56,188.58"/>
    </edge>
    <edge id=":1223127296_4" function="internal">
        <lane id=":1223127296_4_0" index="0" disallow="tram rail_urban rail rail_electric rail_fast ship container cable_car subway aircraft wheelchair scooter drone" speed="6.16" length="1.85" shape="126.93,182.00 127.68,183.57 127.65,183.68"/>
    </edge>
    <edge id=":1223127296_5" function="internal">
        <lane id=":1223127296_5_0" index="0" disallow="tram rail_urban rail rail_electric rail_fast ship container cable_car subway aircraft wheelchair scooter drone" speed="3.65" length="1.44" shape="126.93,182.00 127.12,183.43"/>
    </edge>
    <edge id=":1223127296_7" function="internal">
        <lane id=":1223127296_7_0" index="0" disallow="tram rail_urban rail rail_electric rail_fast ship container cable_car subway aircraft wheelchair scooter drone" speed="6.16" length="7.38" shape="127.65,183.68 127.24,185.24 125.63,187.02 122.83,188.89"/>
    </edge>
    <edge id=":1223127296_8" function="internal">
        <lane id=":1223127296_8_0" index="0" disallow="tram rail_urban rail rail_electric rail_fast ship container cable_car subway aircraft wheelchair scooter drone" speed="3.65" length="3.23" shape="127.12,183.43 126.79,184.25 125.92,184.48 124.53,184.11"/>
    </edge>
    <edge id=":1223127297_0" function="internal">
        <lane id=":1223127297_0_0" index="0" disallow="tram rail_urban rail rail_electric rail_fast ship container cable_car subway aircraft wheelchair scooter drone" speed="6.48" length="9.03" shape="286.70,724.89 284.70,723.42 282.71,722.96 280.75,723.49 278.80,725.03"/>
    </edge>
    <edge id=":1223127297_1" function="internal">
        <lane id=":1223127297_1_0" index="0" disallow="tram rail_urban rail rail_electric rail_fast ship container cable_car subway aircraft wheelchair scooter drone" speed="13.89" length="14.33" shape="286.70,724.89 276.66,714.66"/>
    </edge>
    <edge id=":1223127297_2" function="internal">
        <lane id=":1223127297_2_0" index="0" disallow="tram rail_urban rail rail_electric rail_fast ship container cable_car subway aircraft wheelchair scooter drone" speed="3.65" length="1.44" shape="286.70,724.89 286.40,723.48"/>
    </edge>
    <edge id=":1223127297_9" function="internal">
        <lane id=":1223127297_9_0" index="0" disallow="tram rail_urban rail rail_electric rail_fast ship container cable_car subway aircraft wheelchair scooter drone" speed="3.65" length="3.23" shape="286.40,723.48 286.67,722.62 287.52,722.33 288.93,722.60"/>
    </edge>
    <edge id=":1223127297_3" function="internal">
        <lane id=":1223127297_3_0" index="0" disallow="tram rail_urban rail rail_electric rail_fast ship container cable_car subway aircraft wheelchair scooter drone" speed="13.89" length="14.19" shape="278.99,712.47 288.93,722.60"/>
    </edge>
    <edge id=":1223127297_4" function="internal">
        <lane id=":1223127297_4_0" index="0" disallow="tram rail_urban rail rail_electric rail_fast ship container cable_car subway aircraft wheelchair scooter drone" speed="8.15" length="3.81" shape="278.99,712.47 281.17,715.59"/>
    </edge>
    <edge id=":1223127297_5" function="internal">
        <lane id=":1223127297_5_0" index="0" disallow="tram rail_urban rail rail_electric rail_fast ship container cable_car subway aircraft wheelchair scooter drone" speed="3.65" length="1.44" shape="278.99,712.47 279.23,713.89"/>
    </edge>
    <edge id=":1223127297_10" function="internal">
        <lane id=":1223127297_10_0" index="0" disallow="tram rail_urban rail rail_electric rail_fast ship container cable_car subway aircraft wheelchair scooter drone" speed="8.15" length="10.35" shape="281.17,715.59 281.87,718.72 281.08,721.87 278.80,725.03"/>
    </edge>
    <edge id=":1223127297_11" function="internal">
        <lane id=":1223127297_11_0" index="0" disallow="tram rail_urban rail rail_electric rail_fast ship container cable_car subway aircraft wheelchair scooter drone" speed="3.65" length="3.23" shape="279.23,713.89 278.92,714.73 278.06,714.99 276.66,714.66"/>
    </edge>
    <edge id=":1223127297_6" function="internal">
        <lane id=":1223127297_6_0" index="0" disallow="tram rail_urban rail rail_electric rail_fast ship container cable_car subway aircraft wheelchair scooter drone" speed="6.69" length="9.19" shape="276.48,722.82 277.98,720.75 278.50,718.71 278.06,716.68 276.66,714.66"/>
    </edge>
    <edge id=":1223127297_7" function="internal">
        <lane id=":1223127297_7_0" index="0" disallow="tram rail_urban rail rail_electric rail_fast ship container cable_car subway aircraft wheelchair scooter drone" speed="7.98" length="14.23" shape="276.48,722.82 279.56,720.40 282.65,719.56 285.78,720.29 288.93,722.60"/>
    </edge>
    <edge id=":1223127297_8" function="internal">
        <lane id=":1223127297_8_0" index="0" disallow="tram rail_urban rail rail_electric rail_fast ship container cable_car subway aircraft wheelchair scooter drone" speed="3.65" length="4.67" shape="276.48,722.82 277.89,722.50 278.75,722.76 279.05,723.60 278.80,725.03"/>
    </edge>
    <edge id=":1223127328_0" function="internal">
        <lane id=":1223127328_0_0" index="0" allow="pedestrian delivery bicycle" speed="5.56" length="7.33" shape="12.85,126.82 12.54,125.71 12.94,124.31 14.07,122.63 15.92,120.66"/>
    </edge>
    <edge id=":1223127328_1" function="internal">
        <lane id=":1223127328_1_0" index="0" allow="pedestrian delivery bicycle" speed="3.65" length="4.67" shape="12.85,126.82 12.82,125.38 13.25,124.59 14.14,124.47 15.48,125.00"/>
    </edge>